/dados/desenvolvimento/projetos.eclipse/projetos.cpp/sim-wattch-1.02_impl_cacti4.0_v_2/sim-outorder -redir:sim /dados/UEM/mestrado/pesquisa/implementacao/estudo.codigo/testeConformidade03/resultados/sim-wattch/tstConformidade03_1_1/simout_1.txt -redir:prog /dados/UEM/mestrado/pesquisa/implementacao/estudo.codigo/testeConformidade03/resultados/sim-wattch/tstConformidade03_1_1/progout_1.txt -max:inst 492840986 -cache:il1 il1:128:64:4:l -cache:dl1 dl1:256:64:4:l -cache:dl2 ul2:1024:128:8:l -cache:il2 dl2 -tlb:itlb itlb:8:4096:8:l -tlb:dtlb dtlb:16:4096:8:l -fetch:ifqsize 8 -decode:width 16 -issue:inorder FALSE -issue:width 16 -ruu:size 16 -lsq:size 8 -res:ialu 5 -res:imult 2 -res:memport 3 -res:fpalu 5 -res:fpmult 2 -commit:width 16 /opt/simuladores/benchmarks/SPEC/SPEC2000/SPEC2000-SS/spec2k.bin/gzip.ss-little.O3 /opt/simuladores/benchmarks/SPEC/SPEC2000/inputs-spec2000/input.source 60 > /dados/UEM/mestrado/pesquisa/implementacao/estudo.codigo/testeConformidade03/resultados/sim-wattch/tstConformidade03_1_1/stdout_1.out


/dados/desenvolvimento/projetos.eclipse/projetos.cpp/powerSMT_impl_v_4/powerSMT 1 1 -redir:sim /dados/UEM/mestrado/pesquisa/implementacao/estudo.codigo/testeConformidade03/resultados/powerSMT/tstConformidade03_1_1/simout_1.txt -redir:prog /dados/UEM/mestrado/pesquisa/implementacao/estudo.codigo/testeConformidade03/resultados/powerSMT/tstConformidade03_1_1/progout_1.txt -max:cycles 248837825 -cache:il1 il1:1:32:64:4:l -cache:il2 dl2 -cache:dl1 dl1:1:64:64:4:l -cache:dl2 ul2:1:1024:128:8:l -tlb:itlb itlb:256:4096:8:l -tlb:dtlb dtlb:512:4096:8:l -imodules:num 1 -fetch:width 8 -fetch:ifqsize 8 -decode:width 16 -issue:inorder FALSE -issue:width 16 -ruulsq:type shared -ruu:size 16 -lsq:size 8 -fu:type hetero -res:ialu 5 -res:imult 2 -res:memport 3 -res:fpalu 5 -res:fpmult 2 -commit:width 16 /dados/desenvolvimento/projetos.eclipse/projetos.cpp/powerSMT_impl_v_4/batch/RUN_SPEC2000 > /dados/UEM/mestrado/pesquisa/implementacao/estudo.codigo/testeConformidade03/resultados/powerSMT/tstConformidade03_1_1/stdout_1.out
